Codigos/Simulacoes/14/FLUXO_NWT_RPHSN_14.txt

  ***************** RESULTADOS - FLUXO DE POTÊNCIA **********************

                      MÉTODO NEWTON RAPHSON              


#####   HORÁRIO   => 01:00
#####   INTERVALO => 1

  NUMEROS DE BARRAS:	14
  NUMEROS DE LINHAS:	20
  QT. ITERAÇÕES:	4

  TENSÃO E POTÊNCIA POR BARRA
 -----------------------------------------------------------
 Barra Tensão  Ângulo      --Carga--       --Gerador-- 
       (pu)    (grau)      MW      MVar     MW      MVar  
 ------------------------------------------------------------
    1  1.060     0.00     0.00     0.00    18.40    22.27
    2  1.046     0.04     3.30     1.90    40.00   -40.00
    3  1.043    -1.48    14.10     2.90     0.00     0.00
    4  1.046    -1.54     7.20    -0.60     0.00    -0.00
    5  1.044    -1.26     1.10     0.20     0.00    -0.00
    6  1.096    -2.83     1.70     1.10    -0.00    -6.00
    7  1.085    -2.78     0.00     0.00    -0.00     0.00
    8  1.090    -2.78     0.00     0.00     0.00     2.98
    9  1.091    -3.41     4.40     2.50    -0.00     0.00
   10  1.078    -3.83    20.30    13.00     0.00    -0.00
   11  1.086    -3.35     0.50     0.30     0.00    -0.00
   12  1.094    -2.98     0.90     0.20    -0.00     0.00
   13  1.092    -3.03     2.00     0.90     0.00    -0.00
   14  1.089    -3.38     2.20     0.80     0.00    -0.00

             Total->     57.70    23.20    58.40   -20.75

  CORRENTE e FLUXO DE POTÊNCIA POR LINHA
-----------------------------------------------------------------------------------------
 De Para  I(pu) Ângulo     FLUXO DIRETO     FLUXO INVERSO      PERDAS
                (grau)     MW   -> MVar     MW   <- MVar    MW      MVar 
-----------------------------------------------------------------------------------------
  1   2   0.202  -72.75    6.35   20.44   -6.25  -25.99    0.10   -5.54
  1   5   0.115   -8.60   12.05    1.82  -11.97   -6.94    0.08   -5.12
  2   3   0.141   15.68   14.22   -3.98  -14.13   -0.43    0.09   -4.41
  2   4   0.162   23.27   15.55   -6.67  -15.41    3.38    0.14   -3.29
  2   5   0.136   21.78   13.19   -5.26  -13.09    1.77    0.10   -3.48
  3   4   0.024   87.89    0.03   -2.47   -0.03    1.08    0.00   -1.39
  4   5   0.119 -150.71  -10.64    6.35   10.66   -6.29    0.02    0.06
  4   7   0.138   32.43   11.96   -8.06  -11.96    8.44    0.00    0.38
  4   9   0.069   15.78    6.91   -2.16   -6.91    2.41   -0.00    0.25
  5   6   0.167  -41.51   13.30   11.26  -13.30  -10.65    0.00    0.61
  6  11   0.064  -22.61    6.55    2.36   -6.51   -2.28    0.04    0.08
  6  12   0.013  -13.44    1.40    0.26   -1.40   -0.26    0.00    0.00
  6  13   0.034  -17.15    3.65    0.93   -3.64   -0.92    0.01    0.02
  7   8   0.027   87.22    0.00   -2.97   -0.00    2.98    0.00    0.01
  7   9   0.121   21.80   11.96   -5.47  -11.96    5.63    0.00    0.16
  9  10   0.168  -41.59   14.41   11.33  -14.32  -11.09    0.09    0.24
  9  14   0.007  -88.31    0.07    0.74   -0.07   -0.74    0.00    0.00
 10  11   0.058  158.46   -5.98   -1.91    6.01    1.98    0.03    0.07
 12  13   0.005   -9.66    0.50    0.06   -0.50   -0.06    0.00    0.00
 13  14   0.020   -5.01    2.14    0.07   -2.13   -0.06    0.01    0.01
                                        Total Perdas ->    0.70  -21.34

  ***************** RESULTADOS - FLUXO DE POTÊNCIA **********************

                      MÉTODO NEWTON RAPHSON              


#####   HORÁRIO   => 02:00
#####   INTERVALO => 2

  NUMEROS DE BARRAS:	14
  NUMEROS DE LINHAS:	20
  QT. ITERAÇÕES:	5

  TENSÃO E POTÊNCIA POR BARRA
 -----------------------------------------------------------
 Barra Tensão  Ângulo      --Carga--       --Gerador-- 
       (pu)    (grau)      MW      MVar     MW      MVar  
 ------------------------------------------------------------
    1  1.060     0.00     0.00     0.00    10.41    21.96
    2  1.047     0.21     3.00     1.80    41.30   -40.00
    3  1.045    -1.18    13.20     2.70     0.00    -0.00
    4  1.047    -1.21     3.30    -0.30     0.00    -0.00
    5  1.046    -0.99     1.10     0.20     0.00    -0.00
    6  1.097    -2.48     1.60     1.10     0.00    -6.00
    7  1.087    -2.38     0.00     0.00     0.00    -0.00
    8  1.090    -2.38     0.00     0.00     0.00     2.04
    9  1.093    -2.99     2.10     1.20     0.00     0.00
   10  1.079    -3.44    21.40    13.80     0.00     0.00
   11  1.087    -2.98     0.50     0.30    -0.00     0.00
   12  1.095    -2.63     0.90     0.20     0.00    -0.00
   13  1.094    -2.66     1.90     0.80     0.00     0.00
   14  1.091    -2.97     2.10     0.70     0.00     0.00

             Total->     51.10    22.50    51.71   -22.00

  CORRENTE e FLUXO DE POTÊNCIA POR LINHA
-----------------------------------------------------------------------------------------
 De Para  I(pu) Ângulo     FLUXO DIRETO     FLUXO INVERSO      PERDAS
                (grau)     MW   -> MVar     MW   <- MVar    MW      MVar 
-----------------------------------------------------------------------------------------
  1   2   0.192  -87.91    0.74   20.32   -0.65  -25.89    0.09   -5.57
  1   5   0.093   -9.60    9.67    1.64   -9.62   -6.87    0.05   -5.23
  2   3   0.130   17.83   12.97   -4.12  -12.90   -0.36    0.07   -4.48
  2   4   0.146   25.70   13.84   -6.60  -13.73    3.21    0.11   -3.38
  2   5   0.126   23.36   12.13   -5.19  -12.05    1.65    0.08   -3.54
  3   4   0.023   96.11   -0.30   -2.34    0.30    0.94    0.00   -1.40
  4   5   0.096 -142.57   -7.86    6.28    7.87   -6.24    0.01    0.04
  4   7   0.132   33.52   11.39   -7.90  -11.39    8.25   -0.00    0.35
  4   9   0.066   17.56    6.59   -2.24   -6.59    2.47    0.00    0.23
  5   6   0.162  -42.55   12.70   11.26  -12.70  -10.68   -0.00    0.58
  6  11   0.063  -23.79    6.40    2.50   -6.36   -2.42    0.04    0.08
  6  12   0.012  -13.17    1.33    0.25   -1.33   -0.25    0.00    0.00
  6  13   0.032  -16.38    3.37    0.83   -3.36   -0.82    0.01    0.01
  7   8   0.019   87.62    0.00   -2.04   -0.00    2.04    0.00    0.01
  7   9   0.119   26.21   11.39   -6.21  -11.39    6.37   -0.00    0.16
  9  10   0.181  -40.48   15.67   12.02  -15.56  -11.75    0.10    0.28
  9  14   0.006  -74.60    0.21    0.64   -0.21   -0.64    0.00    0.00
 10  11   0.057  157.16   -5.84   -2.05    5.86    2.12    0.03    0.06
 12  13   0.004   -8.92    0.43    0.05   -0.43   -0.05    0.00    0.00
 13  14   0.017   -4.73    1.89    0.07   -1.89   -0.06    0.01    0.01
                                        Total Perdas ->    0.61  -21.80

  ***************** RESULTADOS - FLUXO DE POTÊNCIA **********************

                      MÉTODO NEWTON RAPHSON              


#####   HORÁRIO   => 03:00
#####   INTERVALO => 3

  NUMEROS DE BARRAS:	14
  NUMEROS DE LINHAS:	20
  QT. ITERAÇÕES:	4

  TENSÃO E POTÊNCIA POR BARRA
 -----------------------------------------------------------
 Barra Tensão  Ângulo      --Carga--       --Gerador-- 
       (pu)    (grau)      MW      MVar     MW      MVar  
 ------------------------------------------------------------
    1  1.060     0.00     0.00     0.00    10.42    22.44
    2  1.047     0.21     3.30     1.90    41.20   -39.99
    3  1.044    -1.20    14.10     2.90     0.00    -0.00
    4  1.047    -1.18     1.90    -0.20     0.00    -0.00
    5  1.046    -0.97     1.10     0.20     0.00    -0.00
    6  1.097    -2.48     1.70     1.10     0.00    -6.00
    7  1.087    -2.35     0.00     0.00    -0.00     0.00
    8  1.090    -2.35     0.00     0.00     0.00     2.09
    9  1.093    -2.96     1.20     0.70    -0.00     0.00
   10  1.079    -3.44    22.10    14.20    -0.00     0.00
   11  1.087    -2.97     0.50     0.30    -0.00     0.00
   12  1.095    -2.63     0.90     0.20     0.00    -0.00
   13  1.094    -2.66     2.00     0.90    -0.00     0.00
   14  1.091    -2.96     2.20     0.80    -0.00     0.00

             Total->     51.00    23.00    51.62   -21.45

  CORRENTE e FLUXO DE POTÊNCIA POR LINHA
-----------------------------------------------------------------------------------------
 De Para  I(pu) Ângulo     FLUXO DIRETO     FLUXO INVERSO      PERDAS
                (grau)     MW   -> MVar     MW   <- MVar    MW      MVar 
-----------------------------------------------------------------------------------------
  1   2   0.195  -87.55    0.89   20.68   -0.79  -26.25    0.10   -5.56
  1   5   0.091  -10.46    9.53    1.76   -9.48   -6.99    0.05   -5.23
  2   3   0.132   16.84   13.24   -3.96  -13.16   -0.51    0.08   -4.46
  2   4   0.144   26.04   13.52   -6.55  -13.41    3.15    0.11   -3.40
  2   5   0.124   23.54   11.93   -5.14  -11.85    1.60    0.08   -3.54
  3   4   0.025  110.15   -0.93   -2.39    0.94    1.00    0.00   -1.39
  4   5   0.092 -141.00   -7.39    6.24    7.40   -6.20    0.01    0.04
  4   7   0.132   33.70   11.38   -7.93  -11.38    8.29    0.00    0.35
  4   9   0.066   17.70    6.58   -2.25   -6.58    2.48    0.00    0.23
  5   6   0.164  -42.60   12.82   11.40  -12.82  -10.81    0.00    0.59
  6  11   0.063  -24.02    6.39    2.52   -6.35   -2.44    0.04    0.08
  6  12   0.012  -13.89    1.34    0.27   -1.34   -0.27    0.00    0.00
  6  13   0.032  -17.57    3.40    0.92   -3.39   -0.90    0.01    0.01
  7   8   0.019   87.65    0.00   -2.09   -0.00    2.09   -0.00    0.01
  7   9   0.119   26.21   11.38   -6.20  -11.38    6.35    0.00    0.16
  9  10   0.188  -40.11   16.39   12.42  -16.28  -12.12    0.11    0.30
  9  14   0.008  -65.89    0.38    0.74   -0.38   -0.74    0.00    0.00
 10  11   0.057  156.90   -5.82   -2.08    5.85    2.14    0.03    0.06
 12  13   0.004  -11.26    0.44    0.07   -0.44   -0.07    0.00    0.00
 13  14   0.017   -4.80    1.83    0.07   -1.82   -0.06    0.00    0.01
                                        Total Perdas ->    0.62  -21.76

  ***************** RESULTADOS - FLUXO DE POTÊNCIA **********************

                      MÉTODO NEWTON RAPHSON              


#####   HORÁRIO   => 04:00
#####   INTERVALO => 4

  NUMEROS DE BARRAS:	14
  NUMEROS DE LINHAS:	20
  QT. ITERAÇÕES:	4

  TENSÃO E POTÊNCIA POR BARRA
 -----------------------------------------------------------
 Barra Tensão  Ângulo      --Carga--       --Gerador-- 
       (pu)    (grau)      MW      MVar     MW      MVar  
 ------------------------------------------------------------
    1  1.060     0.00     0.00     0.00    41.67    19.13
    2  1.045    -0.52     6.70     3.90    40.50   -27.32
    3  1.033    -2.87    29.20     5.90     0.00     0.00
    4  1.041    -2.34     2.90    -0.20     0.00    -0.00
    5  1.040    -1.99     2.40     0.50    -0.00     0.00
    6  1.085    -4.13     3.50     2.30    -0.00    -6.00
    7  1.081    -3.80     0.00     0.00     0.00     0.00
    8  1.090    -3.80     0.00     0.00     0.00     5.46
    9  1.085    -4.55     1.80     1.00     0.00     0.00
   10  1.069    -5.08    22.70    14.60     0.00    -0.00
   11  1.076    -4.64     1.10     0.60     0.00    -0.00
   12  1.081    -4.40     1.90     0.50     0.00     0.00
   13  1.080    -4.44     4.20     1.80     0.00    -0.00
   14  1.077    -4.79     4.60     1.60     0.00    -0.00

             Total->     81.00    32.50    82.17    -8.74

  CORRENTE e FLUXO DE POTÊNCIA POR LINHA
-----------------------------------------------------------------------------------------
 De Para  I(pu) Ângulo     FLUXO DIRETO     FLUXO INVERSO      PERDAS
                (grau)     MW   -> MVar     MW   <- MVar    MW      MVar 
-----------------------------------------------------------------------------------------
  1   2   0.268  -35.26   23.18   16.39  -23.02  -21.76    0.16   -5.37
  1   5   0.176   -8.43   18.49    2.74  -18.31   -7.42    0.18   -4.68
  2   3   0.218    1.51   22.74   -0.81  -22.52   -2.98    0.22   -3.78
  2   4   0.184   14.93   18.54   -5.12  -18.35    2.00    0.19   -3.13
  2   5   0.152   12.31   15.54   -3.54  -15.41    0.17    0.13   -3.37
  3   4   0.071  153.52   -6.68   -2.92    6.71    1.62    0.03   -1.30
  4   5   0.145 -154.64  -13.38    7.02   13.40   -6.93    0.03    0.09
  4   7   0.158   28.87   14.02   -8.49  -14.02    8.99    0.00    0.50
  4   9   0.080   11.19    8.09   -1.95   -8.09    2.28   -0.00    0.33
  5   6   0.217  -39.37   17.92   13.69  -17.92  -12.66   -0.00    1.03
  6  11   0.062  -23.08    6.31    2.17   -6.28   -2.09    0.04    0.08
  6  12   0.023  -17.91    2.43    0.60   -2.42   -0.58    0.01    0.01
  6  13   0.054  -19.83    5.68    1.60   -5.66   -1.56    0.02    0.04
  7   8   0.050   86.20    0.00   -5.41   -0.00    5.46    0.00    0.04
  7   9   0.134   10.52   14.02   -3.58  -14.02    3.78    0.00    0.20
  9  10   0.205  -41.94   17.68   13.51  -17.54  -13.15    0.13    0.36
  9  14   0.029  -38.79    2.64    1.80   -2.63   -1.77    0.01    0.02
 10  11   0.050  159.27   -5.16   -1.45    5.18    1.49    0.02    0.05
 12  13   0.005  -13.32    0.52    0.08   -0.52   -0.08    0.00    0.00
 13  14   0.018    0.24    1.98   -0.16   -1.97    0.17    0.01    0.01
                                        Total Perdas ->    1.17  -18.87

  ***************** RESULTADOS - FLUXO DE POTÊNCIA **********************

                      MÉTODO NEWTON RAPHSON              


#####   HORÁRIO   => 05:00
#####   INTERVALO => 5

  NUMEROS DE BARRAS:	14
  NUMEROS DE LINHAS:	20
  QT. ITERAÇÕES:	4

  TENSÃO E POTÊNCIA POR BARRA
 -----------------------------------------------------------
 Barra Tensão  Ângulo      --Carga--       --Gerador-- 
       (pu)    (grau)      MW      MVar     MW      MVar  
 ------------------------------------------------------------
    1  1.060     0.00     0.00     0.00    69.65    13.45
    2  1.045    -1.20    10.20     6.00    40.00   -11.37
    3  1.023    -4.45    44.30     8.90     0.00     0.00
    4  1.036    -3.35     2.40    -0.20     0.00    -0.00
    5  1.035    -2.89     3.60     0.80    -0.00     0.00
    6  1.076    -5.58     5.30     3.50    -0.00    -6.00
    7  1.077    -5.03     0.00     0.00     0.00     0.00
    8  1.090    -5.03     0.00     0.00     0.00     7.77
    9  1.080    -5.89     1.50     0.80     0.00     0.00
   10  1.063    -6.45    22.50    14.50     0.00    -0.00
   11  1.068    -6.08     1.60     0.80     0.00    -0.00
   12  1.070    -5.97     2.90     0.80     0.00     0.00
   13  1.068    -6.01     6.30     2.70     0.00    -0.00
   14  1.067    -6.39     7.00     2.30     0.00    -0.00

             Total->    107.60    40.90   109.65     3.85

  CORRENTE e FLUXO DE POTÊNCIA POR LINHA
-----------------------------------------------------------------------------------------
 De Para  I(pu) Ângulo     FLUXO DIRETO     FLUXO INVERSO      PERDAS
                (grau)     MW   -> MVar     MW   <- MVar    MW      MVar 
-----------------------------------------------------------------------------------------
  1   2   0.420  -13.11   43.38   10.10  -43.03  -14.87    0.35   -4.77
  1   5   0.250   -7.26   26.26    3.34  -25.91   -7.30    0.35   -3.96
  2   3   0.306   -6.02   31.84    2.69  -31.39   -5.49    0.45   -2.80
  2   4   0.219    7.61   22.58   -3.50  -22.30    0.64    0.27   -2.85
  2   5   0.177    4.03   18.42   -1.69  -18.24   -1.52    0.18   -3.20
  3   4   0.131  160.74  -12.91   -3.41   13.02    2.34    0.11   -1.07
  4   5   0.192 -159.63  -18.21    8.00   18.26   -7.85    0.05    0.16
  4   7   0.176   26.09   15.92   -8.98  -15.92    9.61    0.00    0.62
  4   9   0.090    7.78    9.17   -1.81   -9.17    2.23   -0.00    0.43
  5   6   0.264  -38.33   22.29   15.87  -22.29  -14.34   -0.00    1.53
  6  11   0.056  -21.60    5.77    1.66   -5.74   -1.60    0.03    0.06
  6  12   0.033  -20.55    3.47    0.93   -3.45   -0.90    0.01    0.03
  6  13   0.075  -21.78    7.75    2.25   -7.72   -2.18    0.04    0.07
  7   8   0.071   84.97    0.00   -7.68   -0.00    7.77    0.00    0.09
  7   9   0.149    1.88   15.92   -1.93  -15.92    2.17    0.00    0.24
  9  10   0.216  -43.23   18.52   14.13  -18.37  -13.73    0.15    0.39
  9  14   0.054  -34.89    5.07    2.81   -5.04   -2.73    0.04    0.08
 10  11   0.039  163.06   -4.13   -0.77    4.14    0.80    0.01    0.03
 12  13   0.005  -16.07    0.55    0.10   -0.55   -0.10    0.00    0.00
 13  14   0.019    6.08    1.97   -0.42   -1.96    0.43    0.01    0.01
                                        Total Perdas ->    2.05  -14.91

  ***************** RESULTADOS - FLUXO DE POTÊNCIA **********************

                      MÉTODO NEWTON RAPHSON              


#####   HORÁRIO   => 06:00
#####   INTERVALO => 6

  NUMEROS DE BARRAS:	14
  NUMEROS DE LINHAS:	20
  QT. ITERAÇÕES:	3

  TENSÃO E POTÊNCIA POR BARRA
 -----------------------------------------------------------
 Barra Tensão  Ângulo      --Carga--       --Gerador-- 
       (pu)    (grau)      MW      MVar     MW      MVar  
 ------------------------------------------------------------
    1  1.060     0.00     0.00     0.00   105.94     8.70
    2  1.045    -1.86    17.10    10.00    81.70     4.79
    3  1.010    -7.57    74.40    15.00     0.00     8.67
    4  1.026    -5.64    14.30    -1.20     0.00     0.00
    5  1.027    -4.82     6.00     1.30    -0.00     0.00
    6  1.070    -9.10     8.80     5.90     0.00     4.38
    7  1.069    -8.10     0.00     0.00     0.00     0.00
    8  1.090    -8.10     0.00     0.00     0.00    13.21
    9  1.066    -9.37     8.80     5.00    -0.00     0.00
   10  1.050    -9.97    22.90    14.80     0.00     0.00
   11  1.057    -9.64     2.80     1.40     0.00    -0.00
   12  1.059    -9.74     4.80     1.30     0.00    -0.00
   13  1.056    -9.79    10.70     4.60     0.00    -0.00
   14  1.048   -10.33    11.80     4.00     0.00    -0.00

             Total->    182.40    62.10   187.64    39.75

  CORRENTE e FLUXO DE POTÊNCIA POR LINHA
-----------------------------------------------------------------------------------------
 De Para  I(pu) Ângulo     FLUXO DIRETO     FLUXO INVERSO      PERDAS
                (grau)     MW   -> MVar     MW   <- MVar    MW      MVar 
-----------------------------------------------------------------------------------------
  1   2   0.597   -3.81   63.17    4.20  -62.47   -7.93    0.70   -3.72
  1   5   0.406   -6.00   42.77    4.49  -41.86   -6.11    0.90   -1.62
  2   3   0.528   -7.77   54.93    5.69  -53.60   -4.73    1.33    0.96
  2   4   0.382    1.60   39.85   -2.41  -39.00    1.32    0.85   -1.08
  2   5   0.309   -0.86   32.30   -0.56  -31.75   -1.49    0.54   -2.05
  3   4   0.207  168.02  -20.80   -1.61   21.08    1.01    0.28   -0.60
  4   5   0.330 -169.86  -32.60    9.21   32.75   -8.75    0.15    0.46
  4   7   0.242   16.44   23.01   -9.33  -23.01   10.50    0.00    1.17
  4   9   0.129   -1.25   13.21   -1.01  -13.21    1.88   -0.00    0.87
  5   6   0.370  -28.17   34.87   15.05  -34.87  -12.06    0.00    3.00
  6  11   0.074  -35.66    7.04    3.52   -6.99   -3.41    0.05    0.11
  6  12   0.058  -26.81    5.89    1.88   -5.84   -1.79    0.04    0.09
  6  13   0.132  -30.46   13.14    5.14  -13.02   -4.91    0.11    0.23
  7   8   0.121   81.90   -0.00  -12.95    0.00   13.21    0.00    0.26
  7   9   0.216  -14.17   23.01    2.45  -23.01   -1.93   -0.00    0.52
  9  10   0.216  -44.38   18.87   13.22  -18.72  -12.82    0.15    0.39
  9  14   0.086  -31.26    8.55    3.44   -8.45   -3.23    0.09    0.20
 10  11   0.044  144.71   -4.18   -1.98    4.19    2.01    0.02    0.04
 12  13   0.011  -35.06    1.04    0.49   -1.04   -0.49    0.00    0.00
 13  14   0.033  -23.22    3.37    0.80   -3.35   -0.77    0.02    0.04
                                        Total Perdas ->    5.24   -0.75

  ***************** RESULTADOS - FLUXO DE POTÊNCIA **********************

                      MÉTODO NEWTON RAPHSON              


#####   HORÁRIO   => 07:00
#####   INTERVALO => 7

  NUMEROS DE BARRAS:	14
  NUMEROS DE LINHAS:	20
  QT. ITERAÇÕES:	3

  TENSÃO E POTÊNCIA POR BARRA
 -----------------------------------------------------------
 Barra Tensão  Ângulo      --Carga--       --Gerador-- 
       (pu)    (grau)      MW      MVar     MW      MVar  
 ------------------------------------------------------------
    1  1.060     0.00     0.00     0.00     3.54    43.33
    2  1.045     1.38    26.50    15.50   267.30   -29.97
    3  1.010    -7.95   114.90    23.20     0.00    36.18
    4  1.021    -4.78    17.20    -1.40     0.00     0.00
    5  1.021    -3.95     9.30     2.00    -0.00     0.00
    6  1.070    -9.87    13.70     9.20     0.00    18.76
    7  1.065    -7.93     0.00     0.00     0.00     0.00
    8  1.090    -7.93     0.00     0.00     0.00    15.57
    9  1.062    -9.55    10.60     6.00     0.00     0.00
   10  1.046   -10.26    22.30    14.40     0.00     0.00
   11  1.054   -10.22     4.30     2.20     0.00    -0.00
   12  1.052   -10.82     7.40     2.00     0.00    -0.00
   13  1.047   -10.85    16.50     7.10     0.00     0.00
   14  1.033   -11.34    18.20     6.10     0.00    -0.00

             Total->    260.90    86.30   270.84    83.87

  CORRENTE e FLUXO DE POTÊNCIA POR LINHA
-----------------------------------------------------------------------------------------
 De Para  I(pu) Ângulo     FLUXO DIRETO     FLUXO INVERSO      PERDAS
                (grau)     MW   -> MVar     MW   <- MVar    MW      MVar 
-----------------------------------------------------------------------------------------
  1   2   0.451 -132.82  -32.52   35.10   32.95  -39.63    0.43   -4.53
  1   5   0.349  -12.86   36.06    8.23  -35.38  -10.74    0.68   -2.51
  2   3   0.838   -0.17   87.51    2.36  -84.21    6.94    3.31    9.30
  2   4   0.613    5.80   63.85   -4.94  -61.67    7.91    2.17    2.97
  2   5   0.541    4.68   56.49   -3.26  -54.82    4.65    1.66    1.39
  3   4   0.310 -176.81  -30.69    6.04   31.34   -5.71    0.65    0.34
  4   5   0.335 -167.97  -32.77    9.90   32.92   -9.43    0.15    0.47
  4   7   0.302   13.84   29.17   -9.83  -29.17   11.64   -0.00    1.82
  4   9   0.164   -1.76   16.73   -0.88  -16.73    2.29    0.00    1.41
  5   6   0.488  -19.68   47.98   13.52  -47.98   -8.30   -0.00    5.22
  6  11   0.079  -52.38    6.21    5.69   -6.15   -5.57    0.06    0.12
  6  12   0.088  -29.88    8.87    3.23   -8.77   -3.03    0.10    0.20
  6  13   0.198  -34.83   19.21    8.94  -18.95   -8.43    0.26    0.51
  7   8   0.143   82.07    0.00  -15.21   -0.00   15.57    0.00    0.36
  7   9   0.276  -14.89   29.17    3.56  -29.17   -2.73    0.00    0.84
  9  10   0.222  -38.65   20.62   11.48  -20.46  -11.06    0.16    0.42
  9  14   0.144  -26.13   14.68    4.37  -14.42   -3.81    0.26    0.56
 10  11   0.036  108.54   -1.84   -3.34    1.85    3.37    0.01    0.03
 12  13   0.016  -47.72    1.37    1.03   -1.37   -1.03    0.01    0.01
 13  14   0.043  -42.54    3.81    2.36   -3.78   -2.29    0.03    0.06
                                        Total Perdas ->    9.94   18.99

  ***************** RESULTADOS - FLUXO DE POTÊNCIA **********************

                      MÉTODO NEWTON RAPHSON              


#####   HORÁRIO   => 08:00
#####   INTERVALO => 8

  NUMEROS DE BARRAS:	14
  NUMEROS DE LINHAS:	20
  QT. ITERAÇÕES:	3

  TENSÃO E POTÊNCIA POR BARRA
 -----------------------------------------------------------
 Barra Tensão  Ângulo      --Carga--       --Gerador-- 
       (pu)    (grau)      MW      MVar     MW      MVar  
 ------------------------------------------------------------
    1  1.060     0.00     0.00     0.00   171.51    -2.42
    2  1.045    -3.25    27.60    16.10   121.00    23.10
    3  1.009   -12.65   119.60    24.10     0.00    40.00
    4  1.018    -8.97    23.40    -1.90     0.00     0.00
    5  1.019    -7.71     9.70     2.00    -0.00     0.00
    6  1.070   -14.12    14.20     9.50     0.00    21.66
    7  1.062   -12.32     0.00     0.00     0.00     0.00
    8  1.090   -12.32     0.00     0.00     0.00    17.26
    9  1.057   -14.06    14.50     8.10     0.00     0.00
   10  1.042   -14.74    22.70    14.60     0.00    -0.00
   11  1.052   -14.59     4.40     2.30     0.00    -0.00
   12  1.051   -15.13     7.70     2.00     0.00    -0.00
   13  1.046   -15.17    17.10     7.40     0.00    -0.00
   14  1.029   -15.82    18.90     6.30     0.00    -0.00

             Total->    279.80    90.50   292.51    99.61

  CORRENTE e FLUXO DE POTÊNCIA POR LINHA
-----------------------------------------------------------------------------------------
 De Para  I(pu) Ângulo     FLUXO DIRETO     FLUXO INVERSO      PERDAS
                (grau)     MW   -> MVar     MW   <- MVar    MW      MVar 
-----------------------------------------------------------------------------------------
  1   2   0.990    4.03  104.70   -7.38 -102.81    7.31    1.89   -0.07
  1   5   0.632   -4.24   66.81    4.95  -64.63   -1.29    2.17    3.66
  2   3   0.844   -4.93   88.19    2.59  -84.83    6.93    3.36    9.52
  2   4   0.574   -0.60   59.87   -2.77  -57.96    4.94    1.91    2.17
  2   5   0.461   -3.10   48.15   -0.13  -46.94    0.14    1.21    0.01
  3   4   0.356 -178.18  -34.77    8.97   35.62   -8.10    0.86    0.87
  4   5   0.509 -172.25  -49.69   14.93   50.03  -13.84    0.35    1.09
  4   7   0.318    8.09   30.91   -9.49  -30.91   11.50   -0.00    2.02
  4   9   0.174   -7.74   17.71   -0.38  -17.71    1.96    0.00    1.58
  5   6   0.525  -21.77   51.84   12.99  -51.84   -6.97   -0.00    6.02
  6  11   0.092  -53.56    7.62    6.27   -7.54   -6.10    0.08    0.17
  6  12   0.093  -33.72    9.41    3.35   -9.30   -3.13    0.11    0.22
  6  13   0.212  -38.89   20.61    9.51  -20.32   -8.93    0.30    0.59
  7   8   0.158   77.68    0.00  -16.82   -0.00   17.26    0.00    0.44
  7   9   0.295  -22.09   30.91    5.32  -30.91   -4.36   -0.00    0.96
  9  10   0.215  -43.72   19.73   11.23  -19.58  -10.84    0.15    0.39
  9  14   0.142  -30.68   14.40    4.30  -14.14   -3.75    0.26    0.55
 10  11   0.047  114.98   -3.12   -3.76    3.14    3.80    0.02    0.04
 12  13   0.019  -50.30    1.60    1.13   -1.59   -1.12    0.01    0.01
 13  14   0.052  -44.00    4.81    2.65   -4.76   -2.55    0.05    0.10
                                        Total Perdas ->   12.71   30.34

  ***************** RESULTADOS - FLUXO DE POTÊNCIA **********************

                      MÉTODO NEWTON RAPHSON              


#####   HORÁRIO   => 09:00
#####   INTERVALO => 9

  NUMEROS DE BARRAS:	14
  NUMEROS DE LINHAS:	20
  QT. ITERAÇÕES:	3

  TENSÃO E POTÊNCIA POR BARRA
 -----------------------------------------------------------
 Barra Tensão  Ângulo      --Carga--       --Gerador-- 
       (pu)    (grau)      MW      MVar     MW      MVar  
 ------------------------------------------------------------
    1  1.060     0.00     0.00     0.00   171.26    -2.58
    2  1.045    -3.26    28.60    16.80   120.70    25.29
    3  1.007   -12.82   124.30    25.10     0.00    40.01
    4  1.019    -8.84    17.20    -1.40     0.00    -0.00
    5  1.019    -7.63    10.00     2.10     0.00     0.00
    6  1.070   -14.10    14.80     9.90     0.00    22.54
    7  1.063   -12.12     0.00     0.00     0.00     0.00
    8  1.090   -12.12     0.00     0.00     0.00    16.52
    9  1.059   -13.81    10.60     6.00     0.00     0.00
   10  1.044   -14.55    23.40    15.10     0.00    -0.00
   11  1.052   -14.49     4.60     2.40     0.00    -0.00
   12  1.051   -15.15     8.10     2.10     0.00    -0.00
   13  1.045   -15.17    17.80     7.70     0.00    -0.00
   14  1.029   -15.73    19.70     6.60     0.00    -0.00

             Total->    279.10    92.40   291.96   101.77

  CORRENTE e FLUXO DE POTÊNCIA POR LINHA
-----------------------------------------------------------------------------------------
 De Para  I(pu) Ângulo     FLUXO DIRETO     FLUXO INVERSO      PERDAS
                (grau)     MW   -> MVar     MW   <- MVar    MW      MVar 
-----------------------------------------------------------------------------------------
  1   2   0.994    4.07  105.11   -7.48 -103.20    7.46    1.91   -0.02
  1   5   0.626   -4.24   66.15    4.90  -64.02   -1.42    2.13    3.48
  2   3   0.859   -5.70   89.74    3.81  -86.26    6.25    3.48   10.06
  2   4   0.559   -0.58   58.36   -2.73  -56.55    4.61    1.81    1.88
  2   5   0.452   -3.20   47.21   -0.05  -46.04   -0.08    1.16   -0.13
  3   4   0.388 -179.99  -38.04    8.66   39.06   -7.39    1.01    1.27
  4   5   0.487 -171.52  -47.38   14.77   47.70  -13.78    0.32    1.00
  4   7   0.313    9.19   30.30   -9.86  -30.30   11.82   -0.00    1.96
  4   9   0.171   -6.41   17.37   -0.74  -17.37    2.26    0.00    1.52
  5   6   0.530  -21.75   52.36   13.17  -52.36   -7.03   -0.00    6.14
  6  11   0.087  -56.69    6.88    6.32   -6.81   -6.17    0.07    0.15
  6  12   0.097  -33.99    9.71    3.51   -9.60   -3.27    0.11    0.24
  6  13   0.216  -39.22   20.97    9.83  -20.66   -9.22    0.31    0.61
  7   8   0.152   77.88    0.00  -16.12   -0.00   16.52    0.00    0.40
  7   9   0.288  -20.19   30.30    4.30  -30.30   -3.39    0.00    0.91
  9  10   0.231  -42.74   21.38   11.81  -21.21  -11.36    0.17    0.45
  9  14   0.154  -30.29   15.69    4.64  -15.39   -4.00    0.30    0.65
 10  11   0.042  105.84   -2.19   -3.74    2.21    3.77    0.01    0.03
 12  13   0.018  -53.28    1.50    1.17   -1.49   -1.17    0.01    0.01
 13  14   0.049  -46.87    4.35    2.69   -4.31   -2.60    0.04    0.08
                                        Total Perdas ->   12.86   30.69

  ***************** RESULTADOS - FLUXO DE POTÊNCIA **********************

                      MÉTODO NEWTON RAPHSON              


#####   HORÁRIO   => 10:00
#####   INTERVALO => 10

  NUMEROS DE BARRAS:	14
  NUMEROS DE LINHAS:	20
  QT. ITERAÇÕES:	3

  TENSÃO E POTÊNCIA POR BARRA
 -----------------------------------------------------------
 Barra Tensão  Ângulo      --Carga--       --Gerador-- 
       (pu)    (grau)      MW      MVar     MW      MVar  
 ------------------------------------------------------------
    1  1.060     0.00     0.00     0.00   165.35    -2.10
    2  1.045    -3.16    28.90    16.90   117.20    23.46
    3  1.007   -12.59   125.30    25.30     0.00    40.01
    4  1.021    -8.42    10.00    -0.80     0.00    -0.00
    5  1.021    -7.30    10.10     2.10     0.00     0.00
    6  1.070   -13.64    14.90    10.00     0.00    21.40
    7  1.065   -11.55     0.00     0.00     0.00     0.00
    8  1.090   -11.55     0.00     0.00     0.00    15.20
    9  1.063   -13.16     6.20     3.50     0.00     0.00
   10  1.046   -13.96    24.30    15.70     0.00    -0.00
   11  1.053   -13.97     4.70     2.40     0.00    -0.00
   12  1.051   -14.68     8.10     2.10     0.00    -0.00
   13  1.046   -14.69    18.00     7.70     0.00    -0.00
   14  1.031   -15.16    19.80     6.70     0.00    -0.00

             Total->    270.30    91.60   282.55    97.97

  CORRENTE e FLUXO DE POTÊNCIA POR LINHA
-----------------------------------------------------------------------------------------
 De Para  I(pu) Ângulo     FLUXO DIRETO     FLUXO INVERSO      PERDAS
                (grau)     MW   -> MVar     MW   <- MVar    MW      MVar 
-----------------------------------------------------------------------------------------
  1   2   0.964    3.73  101.94   -6.64 -100.15    6.27    1.79   -0.37
  1   5   0.600   -4.09   63.41    4.54  -61.45   -1.78    1.96    2.76
  2   3   0.848   -5.54   88.59    3.68  -85.19    6.00    3.39    9.68
  2   4   0.527    0.06   55.03   -3.09  -53.42    4.36    1.61    1.26
  2   5   0.429   -2.78   44.83   -0.30  -43.78   -0.19    1.05   -0.49
  3   4   0.407  179.66  -40.10    8.71   41.22   -7.17    1.12    1.54
  4   5   0.450 -169.73  -43.51   14.71   43.78  -13.86    0.27    0.85
  4   7   0.301   10.64   29.05  -10.03  -29.05   11.85    0.00    1.81
  4   9   0.164   -4.74   16.66   -1.07  -16.66    2.47   -0.00    1.40
  5   6   0.521  -22.27   51.34   13.73  -51.34   -7.79   -0.00    5.94
  6  11   0.081  -58.07    6.17    6.04   -6.10   -5.91    0.06    0.13
  6  12   0.096  -33.55    9.62    3.48   -9.51   -3.25    0.11    0.23
  6  13   0.213  -38.72   20.65    9.67  -20.35   -9.08    0.30    0.59
  7   8   0.139   78.45    0.00  -14.86   -0.00   15.20   -0.00    0.34
  7   9   0.274  -17.47   29.05    3.02  -29.05   -2.19    0.00    0.83
  9  10   0.248  -42.02   23.10   12.73  -22.91  -12.21    0.20    0.52
  9  14   0.161  -29.95   16.41    4.95  -16.08   -4.24    0.33    0.70
 10  11   0.036   97.81   -1.39   -3.49    1.40    3.51    0.01    0.02
 12  13   0.017  -53.92    1.41    1.15   -1.40   -1.14    0.01    0.01
 13  14   0.043  -48.57    3.75    2.52   -3.72   -2.46    0.03    0.07
                                        Total Perdas ->   12.25   27.83

  ***************** RESULTADOS - FLUXO DE POTÊNCIA **********************

                      MÉTODO NEWTON RAPHSON              


#####   HORÁRIO   => 11:00
#####   INTERVALO => 11

  NUMEROS DE BARRAS:	14
  NUMEROS DE LINHAS:	20
  QT. ITERAÇÕES:	3

  TENSÃO E POTÊNCIA POR BARRA
 -----------------------------------------------------------
 Barra Tensão  Ângulo      --Carga--       --Gerador-- 
       (pu)    (grau)      MW      MVar     MW      MVar  
 ------------------------------------------------------------
    1  1.060     0.00     0.00     0.00   160.83    -1.64
    2  1.045    -3.07    28.60    16.80   114.40    21.34
    3  1.009   -12.34   124.30    25.10     0.00    40.00
    4  1.022    -8.14     6.70    -0.50     0.00    -0.00
    5  1.022    -7.07    10.00     2.10     0.00     0.00
    6  1.070   -13.29    14.80     9.90     0.00    20.28
    7  1.067   -11.18     0.00     0.00     0.00     0.00
    8  1.090   -11.18     0.00     0.00     0.00    14.42
    9  1.065   -12.75     4.10     2.30     0.00     0.00
   10  1.047   -13.57    24.80    15.90     0.00     0.00
   11  1.054   -13.60     4.60     2.40     0.00    -0.00
   12  1.051   -14.32     8.10     2.10     0.00    -0.00
   13  1.046   -14.32    17.80     7.70     0.00    -0.00
   14  1.033   -14.75    19.70     6.60     0.00    -0.00

             Total->    263.50    90.40   275.23    94.40

  CORRENTE e FLUXO DE POTÊNCIA POR LINHA
-----------------------------------------------------------------------------------------
 De Para  I(pu) Ângulo     FLUXO DIRETO     FLUXO INVERSO      PERDAS
                (grau)     MW   -> MVar     MW   <- MVar    MW      MVar 
-----------------------------------------------------------------------------------------
  1   2   0.939    3.42   99.32   -5.94  -97.62    5.29    1.70   -0.65
  1   5   0.582   -3.99   61.50    4.29  -59.66   -2.02    1.84    2.28
  2   3   0.834   -5.13   87.10    3.14  -83.82    6.05    3.28    9.19
  2   4   0.508    0.57   53.00   -3.37  -51.51    4.28    1.50    0.91
  2   5   0.415   -2.40   43.32   -0.50  -42.34   -0.20    0.98   -0.70
  3   4   0.411  179.99  -40.48    8.85   41.62   -7.26    1.14    1.59
  4   5   0.430 -168.50  -41.36   14.76   41.60  -13.98    0.25    0.78
  4   7   0.294   11.42   28.30  -10.05  -28.30   11.78    0.00    1.73
  4   9   0.159   -3.83   16.24   -1.22  -16.24    2.55    0.00    1.33
  5   6   0.512  -22.70   50.40   14.10  -50.40   -8.35    0.00    5.74
  6  11   0.077  -58.26    5.81    5.80   -5.75   -5.68    0.06    0.12
  6  12   0.095  -33.23    9.52    3.45   -9.41   -3.22    0.11    0.23
  6  13   0.209  -38.34   20.27    9.48  -19.98   -8.91    0.29    0.57
  7   8   0.132   78.82    0.00  -14.11   -0.00   14.42   -0.00    0.31
  7   9   0.266  -15.89   28.30    2.33  -28.30   -1.55    0.00    0.78
  9  10   0.256  -41.68   23.87   13.19  -23.66  -12.64    0.21    0.55
  9  14   0.163  -29.69   16.58    5.05  -16.24   -4.33    0.34    0.72
 10  11   0.033   95.73   -1.14   -3.26    1.15    3.28    0.01    0.02
 12  13   0.016  -55.00    1.31    1.12   -1.30   -1.12    0.01    0.01
 13  14   0.040  -48.03    3.48    2.32   -3.46   -2.27    0.03    0.06
                                        Total Perdas ->   11.73   25.54

  ***************** RESULTADOS - FLUXO DE POTÊNCIA **********************

                      MÉTODO NEWTON RAPHSON              


#####   HORÁRIO   => 12:00
#####   INTERVALO => 12

  NUMEROS DE BARRAS:	14
  NUMEROS DE LINHAS:	20
  QT. ITERAÇÕES:	3

  TENSÃO E POTÊNCIA POR BARRA
 -----------------------------------------------------------
 Barra Tensão  Ângulo      --Carga--       --Gerador-- 
       (pu)    (grau)      MW      MVar     MW      MVar  
 ------------------------------------------------------------
    1  1.060     0.00     0.00     0.00     3.93    43.05
    2  1.045     1.36    28.90    16.90   272.80   -28.00
    3  1.008    -8.49   125.30    25.30     0.00    40.00
    4  1.021    -4.71     8.10    -0.70     0.00    -0.00
    5  1.021    -3.94    10.10     2.10     0.00     0.00
    6  1.070   -10.06    14.90    10.00     0.00    20.60
    7  1.067    -7.79     0.00     0.00     0.00     0.00
    8  1.090    -7.79     0.00     0.00     0.00    14.43
    9  1.065    -9.38     5.00     2.80     0.00     0.00
   10  1.049   -10.19    23.20    14.90     0.00    -0.00
   11  1.055   -10.29     4.70     2.40     0.00    -0.00
   12  1.051   -11.08     8.10     2.10     0.00    -0.00
   13  1.046   -11.08    18.00     7.70     0.00    -0.00
   14  1.033   -11.45    19.80     6.70     0.00    -0.00

             Total->    266.10    90.20   276.73    90.08

  CORRENTE e FLUXO DE POTÊNCIA POR LINHA
-----------------------------------------------------------------------------------------
 De Para  I(pu) Ângulo     FLUXO DIRETO     FLUXO INVERSO      PERDAS
                (grau)     MW   -> MVar     MW   <- MVar    MW      MVar 
-----------------------------------------------------------------------------------------
  1   2   0.447 -132.54  -32.05   34.93   32.47  -39.48    0.42   -4.55
  1   5   0.348  -12.72   35.98    8.12  -35.30  -10.64    0.68   -2.52
  2   3   0.884   -0.61   92.31    3.17  -88.63    7.72    3.68   10.89
  2   4   0.604    6.11   62.91   -5.23  -60.79    8.01    2.11    2.78
  2   5   0.539    4.78   56.21   -3.36  -54.56    4.70    1.65    1.34
  3   4   0.370 -177.70  -36.67    6.99   37.59   -5.94    0.93    1.04
  4   5   0.311 -165.62  -30.00   10.38   30.13   -9.97    0.13    0.41
  4   7   0.298   15.15   28.66  -10.35  -28.66   12.13   -0.00    1.78
  4   9   0.162    0.15   16.45   -1.40  -16.45    2.76   -0.00    1.36
  5   6   0.504  -19.50   49.63   13.82  -49.63   -8.25    0.00    5.57
  6  11   0.072  -58.88    5.05    5.77   -5.00   -5.67    0.05    0.10
  6  12   0.095  -30.21    9.50    3.48   -9.39   -3.26    0.11    0.23
  6  13   0.209  -35.48   20.18    9.59  -19.89   -9.02    0.29    0.57
  7   8   0.132   82.21    0.00  -14.12   -0.00   14.43    0.00    0.31
  7   9   0.269  -11.77   28.66    1.99  -28.66   -1.19    0.00    0.80
  9  10   0.245  -37.14   23.10   12.15  -22.91  -11.65    0.19    0.51
  9  14   0.167  -25.86   17.01    5.03  -16.65   -4.28    0.35    0.75
 10  11   0.031   84.99   -0.29   -3.25    0.30    3.27    0.01    0.02
 12  13   0.016  -52.98    1.29    1.16   -1.28   -1.15    0.01    0.01
 13  14   0.038  -49.00    3.17    2.47   -3.15   -2.42    0.03    0.05
                                        Total Perdas ->   10.63   21.43

  ***************** RESULTADOS - FLUXO DE POTÊNCIA **********************

                      MÉTODO NEWTON RAPHSON              


#####   HORÁRIO   => 13:00
#####   INTERVALO => 13

  NUMEROS DE BARRAS:	14
  NUMEROS DE LINHAS:	20
  QT. ITERAÇÕES:	3

  TENSÃO E POTÊNCIA POR BARRA
 -----------------------------------------------------------
 Barra Tensão  Ângulo      --Carga--       --Gerador-- 
       (pu)    (grau)      MW      MVar     MW      MVar  
 ------------------------------------------------------------
    1  1.060     0.00     0.00     0.00   160.55    -1.75
    2  1.045    -3.07    28.60    16.80   114.20    20.82
    3  1.009   -12.34   124.30    25.10     0.00    40.00
    4  1.022    -8.13     8.10    -0.70     0.00    -0.00
    5  1.022    -7.06    10.00     2.10     0.00     0.00
    6  1.070   -13.18    14.80     9.90     0.00    19.35
    7  1.067   -11.10     0.00     0.00     0.00     0.00
    8  1.090   -11.10     0.00     0.00     0.00    13.95
    9  1.066   -12.63     5.00     2.80     0.00     0.00
   10  1.050   -13.38    22.10    14.20     0.00     0.00
   11  1.056   -13.44     4.60     2.40     0.00    -0.00
   12  1.051   -14.20     8.10     2.10     0.00    -0.00
   13  1.046   -14.21    17.80     7.70     0.00    -0.00
   14  1.034   -14.63    19.70     6.60     0.00    -0.00

             Total->    263.10    89.00   274.75    92.37

  CORRENTE e FLUXO DE POTÊNCIA POR LINHA
-----------------------------------------------------------------------------------------
 De Para  I(pu) Ângulo     FLUXO DIRETO     FLUXO INVERSO      PERDAS
                (grau)     MW   -> MVar     MW   <- MVar    MW      MVar 
-----------------------------------------------------------------------------------------
  1   2   0.938    3.41   99.21   -5.91  -97.51    5.25    1.70   -0.66
  1   5   0.580   -3.87   61.34    4.15  -59.51   -1.92    1.83    2.23
  2   3   0.834   -5.06   87.05    3.02  -83.78    6.15    3.27    9.17
  2   4   0.508    0.82   52.93   -3.59  -51.44    4.49    1.49    0.89
  2   5   0.413   -2.19   43.13   -0.66  -42.16   -0.07    0.97   -0.73
  3   4   0.411  179.85  -40.52    8.75   41.66   -7.17    1.14    1.59
  4   5   0.434 -168.30  -41.79   15.07   42.04  -14.28    0.25    0.79
  4   7   0.288   12.26   27.61  -10.26  -27.61   11.92    0.00    1.66
  4   9   0.156   -2.97   15.85   -1.43  -15.85    2.70   -0.00    1.27
  5   6   0.505  -23.00   49.63   14.17  -49.63   -8.59    0.00    5.58
  6  11   0.069  -58.82    5.15    5.27   -5.11   -5.18    0.05    0.09
  6  12   0.094  -33.02    9.49    3.42   -9.38   -3.20    0.11    0.23
  6  13   0.208  -38.03   20.19    9.35  -19.90   -8.79    0.29    0.56
  7   8   0.128   78.90    0.00  -13.66   -0.00   13.95    0.00    0.29
  7   9   0.259  -14.71   27.61    1.74  -27.61   -1.00    0.00    0.74
  9  10   0.233  -41.28   21.77   11.90  -21.60  -11.44    0.17    0.46
  9  14   0.164  -29.93   16.69    5.20  -16.35   -4.47    0.34    0.73
 10  11   0.027   86.92   -0.50   -2.76    0.51    2.78    0.01    0.01
 12  13   0.016  -54.79    1.28    1.10   -1.27   -1.09    0.01    0.01
 13  14   0.038  -47.04    3.38    2.18   -3.35   -2.13    0.03    0.05
                                        Total Perdas ->   11.65   24.96

  ***************** RESULTADOS - FLUXO DE POTÊNCIA **********************

                      MÉTODO NEWTON RAPHSON              


#####   HORÁRIO   => 14:00
#####   INTERVALO => 14

  NUMEROS DE BARRAS:	14
  NUMEROS DE LINHAS:	20
  QT. ITERAÇÕES:	3

  TENSÃO E POTÊNCIA POR BARRA
 -----------------------------------------------------------
 Barra Tensão  Ângulo      --Carga--       --Gerador-- 
       (pu)    (grau)      MW      MVar     MW      MVar  
 ------------------------------------------------------------
    1  1.060     0.00     0.00     0.00   161.46    -1.80
    2  1.045    -3.08    28.60    16.80   114.80    21.28
    3  1.009   -12.38   124.30    25.10     0.00    40.00
    4  1.022    -8.19     8.60    -0.70     0.00    -0.00
    5  1.022    -7.11    10.00     2.10     0.00     0.00
    6  1.070   -13.27    14.80     9.90     0.00    19.80
    7  1.067   -11.20     0.00     0.00     0.00     0.00
    8  1.090   -11.20     0.00     0.00     0.00    14.26
    9  1.065   -12.75     5.30     3.00     0.00     0.00
   10  1.049   -13.51    22.70    14.60     0.00     0.00
   11  1.055   -13.56     4.60     2.40     0.00    -0.00
   12  1.051   -14.30     8.10     2.10     0.00    -0.00
   13  1.046   -14.31    17.80     7.70     0.00    -0.00
   14  1.033   -14.74    19.70     6.60     0.00    -0.00

             Total->    264.50    89.60   276.26    93.56

  CORRENTE e FLUXO DE POTÊNCIA POR LINHA
-----------------------------------------------------------------------------------------
 De Para  I(pu) Ângulo     FLUXO DIRETO     FLUXO INVERSO      PERDAS
                (grau)     MW   -> MVar     MW   <- MVar    MW      MVar 
-----------------------------------------------------------------------------------------
  1   2   0.942    3.47   99.69   -6.04  -97.98    5.43    1.72   -0.61
  1   5   0.584   -3.93   61.76    4.24  -59.91   -1.90    1.86    2.34
  2   3   0.836   -5.13   87.28    3.11  -83.99    6.13    3.29    9.25
  2   4   0.512    0.64   53.39   -3.48  -51.87    4.45    1.52    0.97
  2   5   0.416   -2.32   43.51   -0.58  -42.52   -0.10    0.99   -0.68
  3   4   0.409  179.89  -40.31    8.77   41.44   -7.21    1.13    1.56
  4   5   0.438 -168.64  -42.17   14.97   42.43  -14.17    0.26    0.81
  4   7   0.291   11.83   27.96  -10.19  -27.96   11.88    0.00    1.70
  4   9   0.158   -3.44   16.05   -1.33  -16.05    2.63   -0.00    1.30
  5   6   0.508  -22.83   50.00   14.07  -50.00   -8.41    0.00    5.66
  6  11   0.072  -58.53    5.42    5.46   -5.37   -5.36    0.05    0.10
  6  12   0.095  -33.14    9.51    3.44   -9.40   -3.21    0.11    0.23
  6  13   0.209  -38.19   20.27    9.42  -19.98   -8.85    0.29    0.57
  7   8   0.131   78.80    0.00  -13.96   -0.00   14.26    0.00    0.30
  7   9   0.263  -15.45   27.96    2.08  -27.96   -1.32    0.00    0.76
  9  10   0.237  -41.49   22.12   12.13  -21.94  -11.65    0.18    0.47
  9  14   0.163  -29.90   16.59    5.12  -16.25   -4.40    0.34    0.72
 10  11   0.029   90.96   -0.76   -2.95    0.77    2.96    0.01    0.02
 12  13   0.016  -54.70    1.30    1.11   -1.30   -1.10    0.01    0.01
 13  14   0.040  -47.24    3.48    2.25   -3.45   -2.20    0.03    0.05
                                        Total Perdas ->   11.76   25.52

  ***************** RESULTADOS - FLUXO DE POTÊNCIA **********************

                      MÉTODO NEWTON RAPHSON              


#####   HORÁRIO   => 15:00
#####   INTERVALO => 15

  NUMEROS DE BARRAS:	14
  NUMEROS DE LINHAS:	20
  QT. ITERAÇÕES:	3

  TENSÃO E POTÊNCIA POR BARRA
 -----------------------------------------------------------
 Barra Tensão  Ângulo      --Carga--       --Gerador-- 
       (pu)    (grau)      MW      MVar     MW      MVar  
 ------------------------------------------------------------
    1  1.060     0.00     0.00     0.00   167.00    -2.31
    2  1.045    -3.19    28.90    16.90   118.20    23.91
    3  1.007   -12.67   125.30    25.30     0.00    40.01
    4  1.020    -8.53    12.40    -1.00     0.00    -0.00
    5  1.020    -7.39    10.10     2.10     0.00     0.00
    6  1.070   -13.73    14.90    10.00     0.00    21.36
    7  1.065   -11.67     0.00     0.00     0.00     0.00
    8  1.090   -11.67     0.00     0.00     0.00    15.34
    9  1.062   -13.29     7.70     4.30     0.00     0.00
   10  1.047   -14.05    22.90    14.80     0.00    -0.00
   11  1.054   -14.06     4.70     2.40     0.00    -0.00
   12  1.051   -14.77     8.10     2.10     0.00    -0.00
   13  1.046   -14.78    18.00     7.70     0.00    -0.00
   14  1.031   -15.27    19.80     6.70     0.00    -0.00

             Total->    272.80    91.30   285.21    98.30

  CORRENTE e FLUXO DE POTÊNCIA POR LINHA
-----------------------------------------------------------------------------------------
 De Para  I(pu) Ângulo     FLUXO DIRETO     FLUXO INVERSO      PERDAS
                (grau)     MW   -> MVar     MW   <- MVar    MW      MVar 
-----------------------------------------------------------------------------------------
  1   2   0.973    3.83  102.88   -6.89 -101.05    6.62    1.83   -0.27
  1   5   0.607   -4.09   64.13    4.58  -62.12   -1.64    2.00    2.95
  2   3   0.853   -5.60   89.02    3.75  -85.59    6.07    3.43    9.82
  2   4   0.536   -0.04   55.92   -3.08  -54.25    4.50    1.66    1.42
  2   5   0.435   -2.83   45.41   -0.29  -44.33   -0.11    1.08   -0.40
  3   4   0.403  179.60  -39.71    8.64   40.80   -7.15    1.10    1.49
  4   5   0.462 -170.17  -44.73   14.85   45.02  -13.95    0.28    0.90
  4   7   0.302   10.63   29.10  -10.11  -29.10   11.93    0.00    1.82
  4   9   0.164   -4.79   16.69   -1.09  -16.69    2.50    0.00    1.40
  5   6   0.521  -22.23   51.34   13.60  -51.34   -7.67    0.00    5.93
  6  11   0.079  -57.85    6.06    5.88   -6.01   -5.76    0.06    0.12
  6  12   0.096  -33.58    9.64    3.48   -9.53   -3.25    0.11    0.23
  6  13   0.214  -38.72   20.73    9.67  -20.43   -9.07    0.30    0.60
  7   8   0.141   78.33    0.00  -14.99   -0.00   15.34   -0.00    0.35
  7   9   0.275  -17.67   29.10    3.06  -29.10   -2.23   -0.00    0.83
  9  10   0.234  -42.00   21.78   11.93  -21.60  -11.46    0.17    0.46
  9  14   0.160  -30.19   16.31    4.95  -15.98   -4.26    0.33    0.70
 10  11   0.034   97.18   -1.30   -3.34    1.31    3.36    0.01    0.02
 12  13   0.017  -53.50    1.43    1.15   -1.42   -1.14    0.01    0.01
 13  14   0.044  -47.86    3.85    2.51   -3.82   -2.44    0.03    0.07
                                        Total Perdas ->   12.41   28.45

  ***************** RESULTADOS - FLUXO DE POTÊNCIA **********************

                      MÉTODO NEWTON RAPHSON              


#####   HORÁRIO   => 16:00
#####   INTERVALO => 16

  NUMEROS DE BARRAS:	14
  NUMEROS DE LINHAS:	20
  QT. ITERAÇÕES:	4

  TENSÃO E POTÊNCIA POR BARRA
 -----------------------------------------------------------
 Barra Tensão  Ângulo      --Carga--       --Gerador-- 
       (pu)    (grau)      MW      MVar     MW      MVar  
 ------------------------------------------------------------
    1  1.060     0.00     0.00     0.00     4.43    48.17
    2  1.045     1.62    27.60    16.10   314.00   -25.84
    3  1.006    -8.82   119.60    24.10     0.00    40.00
    4  1.011    -6.01    39.20    -3.20     0.00    -0.00
    5  1.013    -4.88     9.70     2.00    -0.00     0.00
    6  1.065   -11.69    14.20     9.50    -0.00    24.00
    7  1.055    -9.90     0.00     0.00    -0.00     0.00
    8  1.090    -9.90     0.00     0.00     0.00    21.96
    9  1.045   -11.92    24.20    13.60     0.00     0.00
   10  1.031   -12.55    22.50    14.50     0.00    -0.00
   11  1.044   -12.28     4.40     2.30     0.00    -0.00
   12  1.046   -12.74     7.70     2.00     0.00    -0.00
   13  1.040   -12.79    17.10     7.40     0.00    -0.00
   14  1.020   -13.60    18.90     6.30     0.00    -0.00

             Total->    305.10    94.60   318.43   108.29

  CORRENTE e FLUXO DE POTÊNCIA POR LINHA
-----------------------------------------------------------------------------------------
 De Para  I(pu) Ângulo     FLUXO DIRETO     FLUXO INVERSO      PERDAS
                (grau)     MW   -> MVar     MW   <- MVar    MW      MVar 
-----------------------------------------------------------------------------------------
  1   2   0.516 -136.52  -39.72   37.67   40.28  -41.82    0.56   -4.15
  1   5   0.428  -13.38   44.15   10.50  -43.12  -11.57    1.02   -1.07
  2   3   0.936   -0.70   97.69    3.97  -93.56    8.80    4.12   12.77
  2   4   0.760    3.49   79.38   -2.58  -76.03    9.16    3.35    6.58
  2   5   0.661    2.88   69.05   -1.51  -66.57    5.44    2.49    3.93
  3   4   0.268 -173.56  -26.04    7.10   26.52   -7.15    0.49   -0.05
  4   5   0.457 -174.12  -45.22    9.52   45.50   -8.64    0.28    0.88
  4   7   0.361    8.34   35.34   -9.04  -35.34   11.65   -0.00    2.60
  4   9   0.200   -8.03   20.18    0.71  -20.18    1.37   -0.00    2.08
  5   6   0.552  -18.07   54.49   12.78  -54.49   -6.10   -0.00    6.68
  6  11   0.109  -49.61    9.18    7.16   -9.07   -6.92    0.11    0.24
  6  12   0.096  -31.31    9.64    3.44   -9.53   -3.20    0.11    0.24
  6  13   0.222  -36.68   21.46   10.00  -21.14   -9.36    0.33    0.64
  7   8   0.201   80.10    0.00  -21.25   -0.00   21.96    0.00    0.72
  7   9   0.347  -25.10   35.34    9.60  -35.34   -8.27   -0.00    1.33
  9  10   0.198  -41.69   17.99   10.29  -17.86   -9.96    0.13    0.33
  9  14   0.133  -27.69   13.34    3.77  -13.11   -3.29    0.22    0.48
 10  11   0.063  123.05   -4.64   -4.54    4.67    4.62    0.03    0.08
 12  13   0.021  -46.03    1.83    1.20   -1.82   -1.19    0.01    0.01
 13  14   0.064  -41.08    5.86    3.15   -5.79   -3.01    0.07    0.14
                                        Total Perdas ->   13.33   34.44

  ***************** RESULTADOS - FLUXO DE POTÊNCIA **********************

                      MÉTODO NEWTON RAPHSON              


#####   HORÁRIO   => 17:00
#####   INTERVALO => 17

  NUMEROS DE BARRAS:	14
  NUMEROS DE LINHAS:	20
  QT. ITERAÇÕES:	3

  TENSÃO E POTÊNCIA POR BARRA
 -----------------------------------------------------------
 Barra Tensão  Ângulo      --Carga--       --Gerador-- 
       (pu)    (grau)      MW      MVar     MW      MVar  
 ------------------------------------------------------------
    1  1.060     0.00     0.00     0.00   183.48    -3.14
    2  1.045    -3.45    26.50    15.50   128.20    25.98
    3  1.010   -13.01   114.90    23.20     0.00    40.00
    4  1.014    -9.89    41.10    -3.40     0.00     0.00
    5  1.016    -8.41     9.30     2.00    -0.00     0.00
    6  1.070   -15.07    13.70     9.20     0.00    23.75
    7  1.057   -13.58     0.00     0.00     0.00     0.00
    8  1.090   -13.58     0.00     0.00     0.00    20.41
    9  1.049   -15.50    25.40    14.30     0.00     0.00
   10  1.037   -16.03    20.30    13.00     0.00    -0.00
   11  1.049   -15.71     4.30     2.20     0.00    -0.00
   12  1.051   -16.09     7.40     2.00     0.00    -0.00
   13  1.045   -16.15    16.50     7.10    -0.00     0.00
   14  1.025   -17.02    18.20     6.10     0.00    -0.00

             Total->    297.60    91.20   311.68   107.01

  CORRENTE e FLUXO DE POTÊNCIA POR LINHA
-----------------------------------------------------------------------------------------
 De Para  I(pu) Ângulo     FLUXO DIRETO     FLUXO INVERSO      PERDAS
                (grau)     MW   -> MVar     MW   <- MVar    MW      MVar 
-----------------------------------------------------------------------------------------
  1   2   1.049    4.64  110.83   -8.99 -108.70    9.63    2.12    0.64
  1   5   0.688   -4.61   72.65    5.85  -70.08   -0.53    2.57    5.32
  2   3   0.858   -4.90   89.60    2.27  -86.13    7.70    3.46    9.97
  2   4   0.645   -1.86   67.35   -1.88  -64.93    5.60    2.41    3.72
  2   5   0.512   -3.95   53.46    0.46  -51.96    0.42    1.49    0.88
  3   4   0.299 -175.46  -28.77    9.10   29.37   -8.86    0.61    0.24
  4   5   0.596 -175.42  -58.55   15.11   59.02  -13.61    0.47    1.50
  4   7   0.344    4.96   33.73   -8.94  -33.73   11.31   -0.00    2.37
  4   9   0.190  -11.38   19.28    0.50  -19.28    1.39    0.00    1.89
  5   6   0.541  -20.71   53.72   11.72  -53.72   -5.30    0.00    6.41
  6  11   0.109  -50.76    9.50    6.82   -9.39   -6.59    0.11    0.24
  6  12   0.093  -34.65    9.39    3.34   -9.28   -3.12    0.11    0.22
  6  13   0.217  -39.71   21.13    9.69  -20.82   -9.08    0.31    0.61
  7   8   0.187   76.42    0.00  -19.80   -0.00   20.41    0.00    0.62
  7   9   0.329  -27.70   33.73    8.49  -33.73   -7.30    0.00    1.19
  9  10   0.169  -45.72   15.34    8.94  -15.25   -8.69    0.09    0.24
  9  14   0.122  -31.72   12.27    3.57  -12.08   -3.17    0.19    0.40
 10  11   0.064  123.52   -5.05   -4.31    5.09    4.39    0.03    0.08
 12  13   0.021  -46.76    1.88    1.12   -1.87   -1.11    0.01    0.01
 13  14   0.066  -42.63    6.19    3.08   -6.12   -2.93    0.07    0.15
                                        Total Perdas ->   14.08   36.71

  ***************** RESULTADOS - FLUXO DE POTÊNCIA **********************

                      MÉTODO NEWTON RAPHSON              


#####   HORÁRIO   => 18:00
#####   INTERVALO => 18

  NUMEROS DE BARRAS:	14
  NUMEROS DE LINHAS:	20
  QT. ITERAÇÕES:	3

  TENSÃO E POTÊNCIA POR BARRA
 -----------------------------------------------------------
 Barra Tensão  Ângulo      --Carga--       --Gerador-- 
       (pu)    (grau)      MW      MVar     MW      MVar  
 ------------------------------------------------------------
    1  1.060     0.00     0.00     0.00   169.65    -1.24
    2  1.045    -3.16    24.10    14.10   120.20    21.00
    3  1.010   -11.91   104.60    21.10     0.00    32.49
    4  1.016    -9.24    43.50    -3.50     0.00     0.00
    5  1.018    -7.81     8.40     1.80    -0.00     0.00
    6  1.070   -13.87    12.40     8.30     0.00    18.38
    7  1.059   -12.64     0.00     0.00     0.00     0.00
    8  1.090   -12.64     0.00     0.00     0.00    19.09
    9  1.052   -14.40    26.80    15.10     0.00     0.00
   10  1.043   -14.78    15.80    10.20     0.00    -0.00
   11  1.052   -14.47     3.90     2.00     0.00    -0.00
   12  1.053   -14.80     6.80     1.80     0.00    -0.00
   13  1.048   -14.87    15.00     6.40    -0.00     0.00
   14  1.030   -15.72    16.50     5.60     0.00    -0.00

             Total->    277.80    82.90   289.85    89.73

  CORRENTE e FLUXO DE POTÊNCIA POR LINHA
-----------------------------------------------------------------------------------------
 De Para  I(pu) Ângulo     FLUXO DIRETO     FLUXO INVERSO      PERDAS
                (grau)     MW   -> MVar     MW   <- MVar    MW      MVar 
-----------------------------------------------------------------------------------------
  1   2   0.964    3.73  101.94   -6.64 -100.15    6.27    1.79   -0.37
  1   5   0.641   -4.56   67.71    5.40  -65.48   -1.48    2.24    3.92
  2   3   0.788   -5.07   82.34    2.75  -79.41    4.96    2.93    7.71
  2   4   0.610   -1.21   63.66   -2.17  -61.50    5.10    2.16    2.93
  2   5   0.481   -3.21   50.25    0.05  -48.93    0.30    1.32    0.35
  3   4   0.257 -177.61  -25.19    6.42   25.64   -6.59    0.45   -0.17
  4   5   0.575 -175.24  -56.66   14.13   57.10  -12.73    0.44    1.39
  4   7   0.320    7.26   31.18   -9.24  -31.18   11.29   -0.00    2.05
  4   9   0.176   -9.55   17.84    0.10  -17.84    1.52   -0.00    1.61
  5   6   0.495  -21.73   48.90   12.12  -48.90   -6.75   -0.00    5.36
  6  11   0.094  -46.36    8.52    5.43   -8.44   -5.25    0.08    0.18
  6  12   0.085  -32.70    8.60    2.93   -8.51   -2.75    0.09    0.18
  6  13   0.198  -37.49   19.38    8.48  -19.12   -7.97    0.26    0.51
  7   8   0.175   77.36    0.00  -18.55   -0.00   19.09   -0.00    0.54
  7   9   0.302  -25.76   31.18    7.27  -31.18   -6.26    0.00    1.01
  9  10   0.127  -46.61   11.34    7.14  -11.29   -7.00    0.05    0.14
  9  14   0.109  -32.40   10.89    3.54  -10.74   -3.22    0.15    0.32
 10  11   0.053  129.92   -4.51   -3.20    4.54    3.25    0.02    0.05
 12  13   0.019  -43.83    1.71    0.95   -1.70   -0.94    0.01    0.01
 13  14   0.061  -38.18    5.83    2.51   -5.76   -2.38    0.06    0.13
                                        Total Perdas ->   12.05   27.86

  ***************** RESULTADOS - FLUXO DE POTÊNCIA **********************

                      MÉTODO NEWTON RAPHSON              


#####   HORÁRIO   => 19:00
#####   INTERVALO => 19

  NUMEROS DE BARRAS:	14
  NUMEROS DE LINHAS:	20
  QT. ITERAÇÕES:	3

  TENSÃO E POTÊNCIA POR BARRA
 -----------------------------------------------------------
 Barra Tensão  Ângulo      --Carga--       --Gerador-- 
       (pu)    (grau)      MW      MVar     MW      MVar  
 ------------------------------------------------------------
    1  1.060     0.00     0.00     0.00   232.39   -16.55
    2  1.045    -4.98    21.70    12.70    40.00    43.56
    3  1.010   -12.73    94.20    19.00     0.00    25.08
    4  1.018   -10.31    47.80    -3.90     0.00     0.00
    5  1.020    -8.77     7.60     1.60    -0.00     0.00
    6  1.070   -14.22    11.20     7.50     0.00    12.73
    7  1.062   -13.36     0.00     0.00     0.00     0.00
    8  1.090   -13.36     0.00     0.00     0.00    17.62
    9  1.056   -14.94    29.50    16.60     0.00     0.00
...